Data/networks/opendssNetworks/network_4/Feeder_3/LineCode.txt
New LineCode.25_SAC_XC nphases=3 R1=1.2 X1=0.079 R0=1.3 X0=0.079 C1=0 C0=0 Units=km
New LineCode.4_SAC_XC nphases=3 R1=4.61 X1=0.094 R0=4.8 X0=0.094 C1=0 C0=0 Units=km
New LineCode.4_XC nphases=3 R1=4.61 X1=0.091 R0=4.8 X0=0.091 C1=0 C0=0 Units=km
New LineCode.4c_16 nphases=3 R1=1.149 X1=0.08 R0=4.26 X0=0.092 C1=0 C0=0 Units=km
New LineCode.5c_.1 nphases=3 R1=0.274 X1=0.073 R0=0.959 X0=0.079 C1=0 C0=0 Units=km
New LineCode.5c_.15 nphases=3 R1=0.195 X1=0.07 R0=0.69 X0=0.078 C1=0 C0=0 Units=km
